COM
COM CONTINGENCY description file entry created by PSS(R)E Config File Builder
COM
SINGLE BRANCH IN SUBSYSTEM 'ALL_BZ'
COM
COM CONTINGENCY description file entry created by PSS(R)E Config File Builder
COM
SINGLE BRANCH IN SUBSYSTEM 'ALL_BZ'
END
